@<TRIPOS>MOLECULE
                                                                                
   26    25    0     0     0
SMALL
NO_CHARGES
****

@<TRIPOS>ATOM
1     C1              -0.0616   0.0076  -0.0630 C.3       1 ABCD   0.0512
2     Du3             -0.4441   1.0459   0.0455 H         1 ABCD   0.0530
3     Du4             -0.4558  -0.5949   0.7843 H         1 ABCD   0.0530
4     C1               1.4664   0.0024  -0.0447 C.3       1 ABCD  -0.0237
5     Du3              1.8297  -1.0450  -0.1559 H         1 ABCD   0.0270
6     Du5              1.8463   0.5658  -0.9282 H         1 ABCD   0.0270
7     C1               2.0453   0.6140   1.2447 C.3       1 ABCD  -0.0212
8     Du4              1.6557   0.0550   2.1265 H         1 ABCD   0.0273
9     Du5              1.6792   1.6624   1.3417 H         1 ABCD   0.0273
10    C1               3.5785   0.6052   1.2756 C.3       1 ABCD   0.0602
11    Du4              3.9649   1.0998   0.3554 H         1 ABCD   0.0563
12    C1               4.1136   1.3250   2.5207 C.3       1 ABCD  -0.0212
13    Du4              3.7817   0.7779   3.4329 H         1 ABCD   0.0273
14    Du5              3.6585   2.3411   2.5762 H         1 ABCD   0.0273
15    C1               5.6440   1.4713   2.5412 C.3       1 ABCD  -0.0237
16    Du4              5.9816   1.9946   1.6181 H         1 ABCD   0.0270
17    Du5              6.1190   0.4649   2.5306 H         1 ABCD   0.0270
18    C1               6.1434   2.2397   3.7642 C.3       1 ABCD   0.0512
19    Du4              5.8444   1.7127   4.6965 H         1 ABCD   0.0530
20    Du5              5.6994   3.2587   3.7870 H         1 ABCD   0.0530
21    O1               7.5764   2.3364   3.6973 O.3       1 ABCD  -0.3764
22    Du3              7.8768   2.7956   4.4709 H         1 ABCD   0.1891
23    O1              -0.5155  -0.5474  -1.3093 O.3       1 ABCD  -0.3764
24    Du3             -1.4634  -0.5762  -1.2906 H         1 ABCD   0.1891
25    O1               3.9961  -0.7734   1.3297 O.3       1 ABCD  -0.3733
26    Du3              4.8719  -0.8322   0.9721 H         1 ABCD   0.1895
@<TRIPOS>BOND
1     1     4     1
2     1     2     1
3     1     3     1
4     1     23    1
5     4     5     1
6     4     7     1
7     4     6     1
8     7     10    1
9     7     8     1
10    7     9     1
11    10    12    1
12    10    11    1
13    10    25    1
14    12    15    1
15    12    13    1
16    12    14    1
17    15    18    1
18    15    16    1
19    15    17    1
20    18    21    1
21    18    19    1
22    18    20    1
23    21    22    1
24    23    24    1
25    25    26    1
