@<TRIPOS>MOLECULE
                                        
   13    12    0     0     0
SMALL
NO_CHARGES
****

@<TRIPOS>ATOM
1     C1              19.6783  -9.8868  -0.9852 C.3       0 ABCD  -0.0026
2     C2              21.1952  -9.7128  -0.9563 C.3       0 ABCD   0.0532
3     C3              18.9392  -8.5618  -1.1457 C.3       0 ABCD   0.0532
4     O4              21.8456 -10.9915  -0.8698 O.3       0 ABCD  -0.3763
5     O5              17.5240  -8.8159  -1.1355 O.3       0 ABCD  -0.3763
6     H6              19.4005 -10.5649  -1.8224 H         0 ABCD   0.0291
7     H7              19.3367 -10.3832  -0.0500 H         0 ABCD   0.0291
8     H8              21.5399  -9.2072  -1.8831 H         0 ABCD   0.0530
9     H9              21.5065  -9.0745  -0.1010 H         0 ABCD   0.0530
10    H10             19.2013  -7.8709  -0.3149 H         0 ABCD   0.0530
11    H11             19.2273  -8.0743  -2.1027 H         0 ABCD   0.0530
12    H12             21.5823 -11.3994  -0.0557 H         0 ABCD   0.1891
13    H13             17.0747  -7.9908  -1.2660 H         0 ABCD   0.1891
@<TRIPOS>BOND
1     1     2     1
2     1     3     1
3     1     6     1
4     1     7     1
5     2     4     1
6     2     8     1
7     2     9     1
8     3     5     1
9     3     10    1
10    3     11    1
11    4     12    1
12    5     13    1
