@<TRIPOS>MOLECULE
                                        
   12    11    0     0     0
SMALL
NO_CHARGES
****

@<TRIPOS>ATOM
1     C1              10.2988  -9.5392  -0.9980 C.3       0 ABCD  -0.0288
2     C2              11.8094  -9.4339  -1.2117 C.3       0 ABCD   0.0509
3     C3               9.6013  -8.1752  -1.0815 C.3       0 ABCD  -0.0587
4     O4              12.4121 -10.7378  -1.1693 O.3       0 ABCD  -0.3764
5     H5               9.8647 -10.2214  -1.7641 H         0 ABCD   0.0267
6     H6              10.0872  -9.9972  -0.0050 H         0 ABCD   0.0267
7     H7              12.0229  -8.9801  -2.2024 H         0 ABCD   0.0530
8     H8              12.2745  -8.7767  -0.4452 H         0 ABCD   0.0530
9     H9               9.7545  -7.6985  -2.0755 H         0 ABCD   0.0215
10    H10              8.5031  -8.2704  -0.9260 H         0 ABCD   0.0215
11    H11              9.9857  -7.4711  -0.3099 H         0 ABCD   0.0215
12    H12             12.3107 -11.0775  -0.2901 H         0 ABCD   0.1891
@<TRIPOS>BOND
1     1     2     1
2     1     3     1
3     1     5     1
4     1     6     1
5     2     4     1
6     2     7     1
7     2     8     1
8     3     9     1
9     3     10    1
10    3     11    1
11    4     12    1
