@<TRIPOS>MOLECULE
                                        
   14    13    0     0     0
SMALL
NO_CHARGES
****

@<TRIPOS>ATOM
1     C1              42.8898 -13.2758  -1.0902 C.3       0 ABCD   0.1063
2     C2              44.3318 -13.5801  -1.4662 C.3       0 ABCD   0.0793
3     C3              42.4254 -11.9378  -1.6435 C.3       0 ABCD   0.0793
4     O4              41.0640 -11.7104  -1.2460 O.3       0 ABCD  -0.3737
5     O5              42.0587 -14.2841  -1.6923 O.3       0 ABCD  -0.3687
6     O6              44.6726 -14.8640  -0.9137 O.3       0 ABCD  -0.3737
7     H7              42.7709 -13.2902   0.0149 H         0 ABCD   0.0608
8     H8              44.4556 -13.5965  -2.5698 H         0 ABCD   0.0556
9     H9              45.0100 -12.8025  -1.0551 H         0 ABCD   0.0556
10    H10             43.0524 -11.1105  -1.2524 H         0 ABCD   0.0556
11    H11             42.4971 -11.9144  -2.7511 H         0 ABCD   0.0556
12    H12             40.6056 -12.5217  -1.4340 H         0 ABCD   0.1892
13    H13             42.4675 -15.1147  -1.4775 H         0 ABCD   0.1897
14    H14             45.5764 -15.0486  -1.1327 H         0 ABCD   0.1892
@<TRIPOS>BOND
1     1     2     1
2     1     3     1
3     1     5     1
4     1     7     1
5     2     6     1
6     2     8     1
7     2     9     1
8     3     4     1
9     3     10    1
10    3     11    1
11    4     12    1
12    5     13    1
13    6     14    1
