@<TRIPOS>MOLECULE
                                                                            
   25    24    0     0     0
SMALL
NO_CHARGES
****

@<TRIPOS>ATOM
1     C1               0.0000  -0.0000  -0.0000 C.3       1 ABCD   0.0511
2     Du3             -0.3333   0.9428  -0.0000 H         1 ABCD   0.0530
3     Du4             -0.3333  -0.4714   0.8165 H         1 ABCD   0.0530
4     C1               1.5200  -0.0000   0.0000 C.3       1 ABCD  -0.0261
5     Du3              1.8533  -0.9428   0.0000 H         1 ABCD   0.0270
6     Du5              1.8533   0.4714  -0.8165 H         1 ABCD   0.0270
7     C1               2.0266   0.7165   1.2411 C.3       1 ABCD  -0.0475
8     Du4              1.6933   0.2451   2.0576 H         1 ABCD   0.0249
9     Du5              1.6933   1.6593   1.2411 H         1 ABCD   0.0249
10    C1               3.5466   0.7165   1.2411 C.3       1 ABCD  -0.0494
11    Du4              3.8799   1.1880   0.4246 H         1 ABCD   0.0248
12    Du5              3.8799  -0.2263   1.2411 H         1 ABCD   0.0248
13    C1               4.0532   1.4331   2.4822 C.3       1 ABCD  -0.0475
14    Du4              3.7199   0.9616   3.2986 H         1 ABCD   0.0249
15    Du5              3.7199   2.3759   2.4822 H         1 ABCD   0.0249
16    C1               5.5732   1.4331   2.4822 C.3       1 ABCD  -0.0261
17    Du4              5.9065   1.9045   1.6657 H         1 ABCD   0.0270
18    Du5              5.9065   0.4903   2.4822 H         1 ABCD   0.0270
19    C1               6.0799   2.1496   3.7233 C.3       1 ABCD   0.0511
20    Du4              5.7465   1.6782   4.5397 H         1 ABCD   0.0530
21    Du5              5.7465   3.0924   3.7233 H         1 ABCD   0.0530
22    O1               7.5599   2.1496   3.7233 O.3       1 ABCD  -0.3764
23    Du3              7.8932   2.6210   4.5398 H         1 ABCD   0.1891
24    O1              -0.4933  -0.6977  -1.2084 O.3       1 ABCD  -0.3764
25    Du3             -1.4933  -0.6977  -1.2084 H         1 ABCD   0.1891
@<TRIPOS>BOND
1     1     4     1
2     1     2     1
3     1     3     1
4     1     24    1
5     4     5     1
6     4     7     1
7     4     6     1
8     7     10    1
9     7     8     1
10    7     9     1
11    10    13    1
12    10    11    1
13    10    12    1
14    13    16    1
15    13    14    1
16    13    15    1
17    16    19    1
18    16    17    1
19    16    18    1
20    19    22    1
21    19    20    1
22    19    21    1
23    22    23    1
24    24    25    1
