@<TRIPOS>MOLECULE
                                                                          
   24    23    0     0     0
SMALL
NO_CHARGES
****

@<TRIPOS>ATOM
1     C1               0.0000  -0.0000  -0.0000 C.3       1 ABCD  -0.0608
2     Du3             -0.3333   0.9428  -0.0000 H         1 ABCD   0.0215
3     Du4             -0.3333  -0.4714   0.8165 H         1 ABCD   0.0215
4     Du5             -0.3333  -0.4714  -0.8165 H         1 ABCD   0.0215
5     C1               1.5200  -0.0000   0.0000 C.3       1 ABCD  -0.0523
6     Du3              1.8533  -0.9428   0.0000 H         1 ABCD   0.0245
7     Du5              1.8533   0.4714  -0.8165 H         1 ABCD   0.0245
8     C1               2.0266   0.7165   1.2411 C.3       1 ABCD  -0.0498
9     Du4              1.6933   0.2451   2.0576 H         1 ABCD   0.0248
10    Du5              1.6933   1.6593   1.2411 H         1 ABCD   0.0248
11    C1               3.5466   0.7165   1.2411 C.3       1 ABCD  -0.0495
12    Du4              3.8799   1.1880   0.4246 H         1 ABCD   0.0248
13    Du5              3.8799  -0.2263   1.2411 H         1 ABCD   0.0248
14    C1               4.0532   1.4331   2.4822 C.3       1 ABCD  -0.0475
15    Du4              3.7199   0.9616   3.2986 H         1 ABCD   0.0249
16    Du5              3.7199   2.3759   2.4822 H         1 ABCD   0.0249
17    C1               5.5732   1.4331   2.4822 C.3       1 ABCD  -0.0261
18    Du4              5.9065   1.9045   1.6657 H         1 ABCD   0.0270
19    Du5              5.9065   0.4903   2.4822 H         1 ABCD   0.0270
20    C1               6.0799   2.1496   3.7233 C.3       1 ABCD   0.0511
21    Du4              5.7465   1.6782   4.5397 H         1 ABCD   0.0530
22    Du5              5.7465   3.0924   3.7233 H         1 ABCD   0.0530
23    O1               7.5599   2.1496   3.7233 O.3       1 ABCD  -0.3764
24    Du3              7.8932   2.6210   4.5398 H         1 ABCD   0.1891
@<TRIPOS>BOND
1     1     5     1
2     1     2     1
3     1     3     1
4     1     4     1
5     5     6     1
6     5     8     1
7     5     7     1
8     8     11    1
9     8     9     1
10    8     10    1
11    11    14    1
12    11    12    1
13    11    13    1
14    14    17    1
15    14    15    1
16    14    16    1
17    17    20    1
18    17    18    1
19    17    19    1
20    20    23    1
21    20    21    1
22    20    22    1
23    23    24    1
