
  ACD/Labs0910041626  

 37 39  0  0  0  0  0  0  0  0  1 V2000
   10.5166   -7.7194    1.4601 N   0  0  0  0  0  0  0  0  0  0  0  0
    9.2506   -8.3249    1.0090 C   0  0  0  0  0  0  0  0  0  0  0  0
    8.9143   -9.6580    1.6752 C   0  0  0  0  0  0  0  0  0  0  0  0
    8.1689   -7.4316    1.2990 O   0  0  0  0  0  0  0  0  0  0  0  0
    7.4080   -9.6296    1.6785 C   0  0  0  0  0  0  0  0  0  0  0  0
    7.1322   -8.1645    1.9498 C   0  0  0  0  0  0  0  0  0  0  0  0
    5.7664   -7.7490    1.4037 C   0  0  0  0  0  0  0  0  0  0  0  0
    4.9925   -7.1130    2.4081 O   0  0  0  0  0  0  0  0  0  0  0  0
    6.8564  -10.4419    2.7093 O   0  0  0  0  0  0  0  0  0  0  0  0
    4.2187   -5.9175    0.5740 O   0  0  0  0  0  0  0  0  0  0  0  0
    3.3859   -5.4731    2.7010 O   0  0  0  0  0  0  0  0  0  0  0  0
    5.5186   -4.9214    2.1490 O   0  0  0  0  0  0  0  0  0  0  0  0
    4.5376   -5.8445    1.9572 P   0  0  0  0  0  0  0  0  0  0  0  0
   12.6000   -7.2906    1.8813 C   0  0  0  0  0  0  0  0  0  0  0  0
   11.7544   -8.2142    1.3531 C   0  0  0  0  0  0  0  0  0  0  0  0
   14.0253   -7.5573    1.8923 C   0  0  0  0  0  0  0  0  0  0  0  0
   12.2548   -9.4777    0.7931 N   0  0  0  0  0  0  0  0  0  0  0  0
   14.4470   -8.7468    1.3150 N   0  0  0  0  0  0  0  0  0  0  0  0
   13.5505   -9.6899    0.7963 C   0  0  0  0  0  0  0  0  0  0  0  0
   10.6218   -6.5146    2.0486 C   0  0  0  0  0  0  0  0  0  0  0  0
   11.9128   -6.2266    2.3165 N   0  0  0  0  0  0  0  0  0  0  0  0
   14.0532  -10.8719    0.2843 N   0  0  0  0  0  0  0  0  0  0  0  0
   14.8117   -6.7811    2.3864 O   0  0  0  0  0  0  0  0  0  0  0  0
    9.3194   -8.5068   -0.0761 H   0  0  0  0  0  0  0  0  0  0  0  0
    9.2738   -9.6445    2.7176 H   0  0  0  0  0  0  0  0  0  0  0  0
    9.3270  -10.5340    1.1437 H   0  0  0  0  0  0  0  0  0  0  0  0
    7.0044   -9.9358    0.6938 H   0  0  0  0  0  0  0  0  0  0  0  0
    7.1783   -7.9743    3.0382 H   0  0  0  0  0  0  0  0  0  0  0  0
    5.2280   -8.6488    1.0645 H   0  0  0  0  0  0  0  0  0  0  0  0
    5.9055   -7.0616    0.5535 H   0  0  0  0  0  0  0  0  0  0  0  0
    6.5907  -11.2539    2.2697 H   0  0  0  0  0  0  0  0  0  0  0  0
    4.1663   -5.0043    0.2869 H   0  0  0  0  0  0  0  0  0  0  0  0
    3.3594   -4.5153    2.6562 H   0  0  0  0  0  0  0  0  0  0  0  0
   15.5248   -8.9688    1.2893 H   0  0  0  0  0  0  0  0  0  0  0  0
    9.7745   -5.8530    2.2751 H   0  0  0  0  0  0  0  0  0  0  0  0
   15.1193  -11.1421    0.2430 H   0  0  0  0  0  0  0  0  0  0  0  0
   13.4530  -11.6936   -0.1332 H   0  0  0  0  0  0  0  0  0  0  0  0
  1  2  1  0  0  0  0
  2  3  1  0  0  0  0
  2  4  1  0  0  0  0
  5  3  1  0  0  0  0
  4  6  1  0  0  0  0
  6  5  1  0  0  0  0
  7  6  1  0  0  0  0
  8  7  1  0  0  0  0
  9  5  1  0  0  0  0
 10 13  1  0  0  0  0
 11 13  1  0  0  0  0
  8 13  1  0  0  0  0
 12 13  2  0  0  0  0
 14 16  1  0  0  0  0
 15 17  1  0  0  0  0
 16 18  1  0  0  0  0
 17 19  2  0  0  0  0
 18 19  1  0  0  0  0
 20  1  1  0  0  0  0
 15  1  1  0  0  0  0
 21 20  2  0  0  0  0
 14 15  2  0  0  0  0
 14 21  1  0  0  0  0
 22 19  1  0  0  0  0
 23 16  2  0  0  0  0
 24  2  1  0  0  0  0
 25  3  1  0  0  0  0
 26  3  1  0  0  0  0
 27  5  1  0  0  0  0
 28  6  1  0  0  0  0
 29  7  1  0  0  0  0
 30  7  1  0  0  0  0
 31  9  1  0  0  0  0
 32 10  1  0  0  0  0
 33 11  1  0  0  0  0
 34 18  1  0  0  0  0
 35 20  1  0  0  0  0
 36 22  1  0  0  0  0
 37 22  1  0  0  0  0
M  END
